Version 4
SHEET 1 880 680
SYMBOL nmos 144 160 R0
SYMATTR InstName M1
SYMATTR Value 2N7000
SYMBOL voltage 544 128 R0
SYMATTR InstName V1
TEXT 32 560 Left 2 !.dc V1 0 2.1 0.01
