Version 4
SHEET 1 2212 792
WIRE -896 -800 -1680 -800
WIRE -352 -800 -896 -800
WIRE -48 -800 -352 -800
WIRE 576 -800 -48 -800
WIRE 816 -800 576 -800
WIRE 1008 -800 816 -800
WIRE 1232 -800 1008 -800
WIRE -1680 -752 -1680 -800
WIRE 816 -736 816 -800
WIRE 1008 -736 1008 -800
WIRE 816 -720 816 -736
WIRE -352 -672 -352 -800
WIRE -1680 -608 -1680 -672
WIRE -1488 -608 -1680 -608
WIRE -1328 -608 -1488 -608
WIRE -1168 -608 -1328 -608
WIRE -1680 -560 -1680 -608
WIRE -1328 -560 -1328 -608
WIRE -1168 -560 -1168 -608
WIRE -1488 -544 -1488 -608
WIRE -352 -528 -352 -592
WIRE 496 -528 -352 -528
WIRE -352 -448 -352 -528
WIRE -352 -272 -352 -368
WIRE 112 -272 -352 -272
WIRE 432 -272 112 -272
WIRE -1328 -208 -1328 -480
WIRE -688 -208 -1328 -208
WIRE -352 -208 -352 -272
WIRE 1008 -192 912 -192
WIRE 1104 -192 1008 -192
WIRE 1216 -192 1168 -192
WIRE 1344 -192 1296 -192
WIRE -688 -112 -688 -208
WIRE -352 -96 -352 -144
WIRE 1344 -80 1344 -192
WIRE 1456 -80 1344 -80
WIRE 1536 -80 1456 -80
WIRE 1344 -64 1344 -80
WIRE 1008 -48 1008 -192
WIRE 1104 -48 1104 -192
WIRE -896 64 -896 -800
WIRE -1328 80 -1328 -208
WIRE -928 80 -1328 80
WIRE -688 96 -688 -32
WIRE -688 96 -864 96
WIRE 160 96 48 96
WIRE 576 96 576 -800
WIRE 576 96 384 96
WIRE -1728 112 -1824 112
WIRE -1616 112 -1648 112
WIRE -1168 112 -1168 -480
WIRE -1168 112 -1552 112
WIRE -928 112 -1168 112
WIRE 1104 128 1104 32
WIRE 112 160 112 -272
WIRE 160 160 112 160
WIRE 496 160 496 -528
WIRE 496 160 384 160
WIRE 1008 176 1008 32
WIRE -1824 208 -1824 112
WIRE -1728 208 -1728 112
WIRE 160 224 112 224
WIRE 432 224 432 -272
WIRE 432 224 384 224
WIRE -48 288 -48 -800
WIRE 160 288 -48 288
WIRE 496 288 384 288
WIRE -688 400 -688 160
WIRE -432 400 -688 400
WIRE 496 400 496 288
WIRE 496 400 -432 400
WIRE -432 480 -432 400
WIRE 112 512 112 224
WIRE 912 512 912 -192
WIRE 912 512 112 512
WIRE 48 752 48 96
FLAG -1680 -480 0
FLAG -1488 -480 0
FLAG -896 128 0
FLAG -1728 288 0
FLAG 48 752 0
FLAG -352 -96 0
FLAG 1104 128 0
FLAG 1232 -720 0
FLAG -1824 288 0
FLAG 816 -672 0
FLAG 1008 -672 0
FLAG 1008 240 0
FLAG -432 560 0
FLAG 1344 -16 0
FLAG 1456 0 0
SYMBOL Misc\\NE555 272 192 R0
SYMATTR InstName U1
SYMBOL Opamps\\ADTL082 -896 32 R0
SYMATTR InstName U2
SYMBOL res -1696 -768 R0
SYMATTR InstName R1
SYMATTR Value 10K
SYMATTR SpiceLine tol=1 pwr=0.1
SYMBOL res -1696 -576 R0
SYMATTR InstName R2
SYMATTR Value 10K
SYMATTR SpiceLine tol=1 pwr=0.1
SYMBOL polcap -1504 -544 R0
WINDOW 3 24 56 Left 2
SYMATTR Value 100µ
SYMATTR InstName C1
SYMATTR Description Capacitor
SYMATTR Type cap
SYMATTR SpiceLine V=16 Irms=0 Rser=0.9 Lser=0 mfg="AVX" pn="TAJE107K016" type="Tantalum"
SYMBOL res -1184 -576 R0
SYMATTR InstName R3
SYMATTR Value 3Meg
SYMATTR SpiceLine tol=1 pwr=0.1
SYMBOL res -1344 -576 R0
SYMATTR InstName R4
SYMATTR Value 1K
SYMATTR SpiceLine tol=1 pwr=0.1
SYMBOL cap -1552 96 R90
WINDOW 0 0 32 VBottom 2
WINDOW 3 32 32 VTop 2
SYMATTR InstName C2
SYMATTR Value 150n
SYMATTR SpiceLine V=50 Irms=1.11 Rser=0.0283161 Lser=0 mfg="KEMET" pn="C0603C154K5RAC" type="X7R"
SYMBOL res -1632 96 R90
WINDOW 0 0 56 VBottom 2
WINDOW 3 32 56 VTop 2
SYMATTR InstName R5
SYMATTR Value 1K
SYMATTR SpiceLine tol=1 pwr=0.1
SYMBOL res -1744 192 R0
SYMATTR InstName R6
SYMATTR Value 3Meg
SYMATTR SpiceLine tol=1 pwr=0.1
SYMBOL res -704 -128 R0
SYMATTR InstName R7
SYMATTR Value 10K
SYMATTR SpiceLine tol=1 pwr=0.1
SYMBOL cap -704 96 R0
SYMATTR Value 4.7µ
SYMATTR InstName C3
SYMATTR SpiceLine V=16 Irms=9.88 Rser=0.00384339 Lser=0 mfg="KEMET" pn="C0805C475K4PAC" type="X5R"
SYMBOL res -368 -688 R0
SYMATTR InstName R8
SYMATTR Value 3.32K
SYMATTR SpiceLine tol=1 pwr=0.1
SYMBOL res -368 -464 R0
SYMATTR InstName R9
SYMATTR Value 10K
SYMATTR SpiceLine tol=1 pwr=0.1
SYMBOL cap -368 -208 R0
SYMATTR InstName C4
SYMATTR Value 390p
SYMATTR SpiceLine V=16 Irms=25.7m Rser=8.19371 Lser=0 mfg="KEMET" pn="C0402C391K4RAC" type="X7R"
SYMBOL res 1088 -64 R0
SYMATTR InstName R10
SYMATTR Value 10K
SYMATTR SpiceLine tol=1 pwr=0.1
SYMBOL voltage -1824 192 R0
WINDOW 3 24 44 Left 2
WINDOW 123 0 0 Left 2
WINDOW 39 0 0 Left 2
SYMATTR Value SINE(0 0.2 1000)
SYMATTR InstName V1
SYMBOL voltage 1232 -816 R0
WINDOW 123 0 0 Left 2
WINDOW 39 0 0 Left 2
SYMATTR InstName V2
SYMATTR Value 12
SYMBOL polcap 800 -736 R0
WINDOW 3 24 56 Left 2
SYMATTR Value 220µ
SYMATTR InstName C5
SYMATTR Description Capacitor
SYMATTR Type cap
SYMATTR SpiceLine V=25 Irms=555m Rser=0.13 Lser=0 mfg="United Chemi-Con" pn="LXF25VB221M8X15LL" type="Al electrolytic"
SYMBOL cap 992 -736 R0
SYMATTR InstName C6
SYMATTR Value 15n
SYMATTR SpiceLine V=25 Irms=364m Rser=0.268918 Lser=0 mfg="KEMET" pn="C1206C153K3RAC" type="X7R"
SYMBOL res 992 -64 R0
SYMATTR InstName R11
SYMATTR Value 15
SYMATTR SpiceLine tol=1 pwr=0.1
SYMBOL cap 992 176 R0
SYMATTR InstName C7
SYMATTR Value 22n
SYMATTR SpiceLine V=50 Irms=714m Rser=0.199778 Lser=0 mfg="KEMET" pn="C1210C223K5RAC" type="X7R"
SYMBOL res -448 464 R0
SYMATTR InstName R12
SYMATTR Value 10K
SYMATTR SpiceLine tol=1 pwr=0.1
SYMBOL cap 1168 -208 R90
WINDOW 0 0 32 VBottom 2
WINDOW 3 32 32 VTop 2
SYMATTR InstName C8
SYMATTR Value 1.5µ
SYMATTR SpiceLine V=25 Irms=6.58 Rser=0.0116219 Lser=0 mfg="KEMET" pn="C0603C155K3PAC" type="X5R"
SYMBOL ind 1312 -208 R90
WINDOW 0 5 56 VBottom 2
WINDOW 3 32 56 VTop 2
SYMATTR InstName L1
SYMATTR Value 440µ
SYMATTR SpiceLine Ipk=1.15 Rser=0.153 Rpar=17537 Cpar=4.1p
SYMBOL cap 1328 -80 R0
SYMATTR InstName C9
SYMATTR Value 1.8µ
SYMATTR SpiceLine V=50 Irms=5.34 Rser=0.0241499 Lser=0 mfg="KEMET" pn="C2225C185K5RAC" type="X7R"
SYMBOL res 1440 -96 R0
SYMATTR InstName R13
SYMATTR Value 32
SYMATTR SpiceLine tol=1 pwr=0.1
TEXT -1920 776 Left 2 !.tran 300
TEXT 1488 -88 Left 2 ;out
