Version 4
SHEET 1 888 680
WIRE 368 -112 -64 -112
WIRE 768 -112 448 -112
WIRE -64 0 -64 -112
WIRE 0 0 -64 0
WIRE 112 0 80 0
WIRE 176 0 112 0
WIRE 288 16 256 16
WIRE 416 16 352 16
WIRE 608 16 560 16
WIRE 768 16 768 -112
WIRE 768 16 672 16
WIRE -64 128 -64 0
WIRE 0 128 -64 128
WIRE 112 144 112 0
WIRE 112 144 64 144
WIRE 160 144 112 144
WIRE 256 144 256 16
WIRE 256 144 240 144
WIRE 304 144 256 144
WIRE -304 160 -336 160
WIRE -64 160 -224 160
WIRE 0 160 -64 160
WIRE 416 160 416 16
WIRE 416 160 368 160
WIRE 448 160 416 160
WIRE 560 160 560 16
WIRE 560 160 528 160
WIRE 608 160 560 160
WIRE 304 176 240 176
WIRE 768 176 768 16
WIRE 768 176 672 176
WIRE 816 176 768 176
WIRE 608 192 576 192
WIRE -64 304 -64 160
WIRE 16 304 -64 304
WIRE 416 304 416 160
WIRE 416 304 96 304
WIRE 240 352 240 176
WIRE 320 352 240 352
WIRE 576 352 576 192
WIRE 576 352 320 352
WIRE 624 352 576 352
WIRE 768 352 704 352
WIRE 320 384 320 352
WIRE 576 400 576 352
FLAG 320 448 0
FLAG 576 480 0
FLAG -336 240 0
FLAG 848 352 0
SYMBOL Comparators\\LT1017 32 144 R0
SYMATTR InstName U1
SYMBOL Comparators\\LT1017 336 160 R0
SYMATTR InstName U2
SYMBOL Comparators\\LT1017 640 176 R0
SYMATTR InstName U3
SYMBOL res -208 144 R90
WINDOW 0 0 56 VBottom 2
WINDOW 3 32 56 VTop 2
SYMATTR InstName R1
SYMATTR Value 15k
SYMBOL res 256 128 R90
WINDOW 0 0 56 VBottom 2
WINDOW 3 32 56 VTop 2
SYMATTR InstName R2
SYMATTR Value 130k
SYMBOL res 112 288 R90
WINDOW 0 0 56 VBottom 2
WINDOW 3 32 56 VTop 2
SYMATTR InstName R3
SYMATTR Value 1.5Meg
SYMBOL res 544 144 R90
WINDOW 0 0 56 VBottom 2
WINDOW 3 32 56 VTop 2
SYMATTR InstName R4
SYMATTR Value 130k
SYMBOL res 96 -16 R90
WINDOW 0 0 56 VBottom 2
WINDOW 3 32 56 VTop 2
SYMATTR InstName R5
SYMATTR Value 30k
SYMBOL res 464 -128 R90
WINDOW 0 0 56 VBottom 2
WINDOW 3 32 56 VTop 2
SYMATTR InstName R6
SYMATTR Value 30k
SYMBOL res 560 384 R0
SYMATTR InstName R7
SYMATTR Value 100k
SYMBOL res 720 336 R90
WINDOW 0 0 56 VBottom 2
WINDOW 3 32 56 VTop 2
SYMATTR InstName R8
SYMATTR Value 100k
SYMBOL cap 352 0 R90
WINDOW 0 0 32 VBottom 2
WINDOW 3 32 32 VTop 2
SYMATTR InstName C1
SYMATTR Value 1200p
SYMBOL cap 672 0 R90
WINDOW 0 0 32 VBottom 2
WINDOW 3 32 32 VTop 2
SYMATTR InstName C2
SYMATTR Value 1200p
SYMBOL cap 304 384 R0
SYMATTR InstName C3
SYMATTR Value 10mk
SYMBOL voltage -336 144 R0
WINDOW 123 24 124 Left 2
WINDOW 39 0 0 Left 2
SYMATTR InstName V1
SYMATTR Value SINE(0 6 44100)
SYMATTR Value2 AC 1
SYMBOL voltage 752 352 R270
WINDOW 0 32 56 VTop 2
WINDOW 3 -32 56 VBottom 2
WINDOW 123 -60 56 VBottom 2
WINDOW 39 0 0 Left 2
SYMATTR InstName V2
SYMATTR Value SINE(0 0 100)
SYMATTR Value2 AC 1
TEXT -370 504 Left 2 !.ac oct 100 1 100k
