Version 4
SHEET 1 1936 680
WIRE 560 -80 176 -80
WIRE 368 0 320 0
WIRE 368 16 368 0
WIRE 176 48 176 -80
WIRE 320 48 320 0
WIRE 400 144 368 144
WIRE -32 160 -128 160
WIRE 176 160 176 112
WIRE 176 160 128 160
WIRE 208 160 176 160
WIRE 320 160 320 112
WIRE 320 160 288 160
WIRE 560 160 560 -80
WIRE 560 160 464 160
WIRE 672 160 560 160
WIRE 320 176 320 160
WIRE 400 176 320 176
WIRE -128 192 -128 160
WIRE 560 240 560 160
WIRE 368 336 368 144
WIRE 560 336 560 320
WIRE 560 336 368 336
WIRE 560 400 560 336
FLAG -128 192 0
FLAG 560 480 0
FLAG 368 16 0
SYMBOL voltage 64 160 R90
WINDOW 0 -32 56 VBottom 2
WINDOW 3 32 56 VTop 2
WINDOW 123 60 56 VTop 2
WINDOW 39 0 0 Left 2
SYMATTR InstName V1
SYMATTR Value SINE(0 1 44100)
SYMATTR Value2 AC DC
SYMBOL res 144 144 R90
WINDOW 0 0 56 VBottom 2
WINDOW 3 32 56 VTop 2
SYMATTR InstName R1
SYMATTR Value 16k
SYMBOL cap 160 48 R0
SYMATTR InstName C1
SYMATTR Value 10µ
SYMBOL cap 304 48 R0
SYMATTR InstName C2
SYMATTR Value 10µ
SYMBOL res 304 144 R90
WINDOW 0 0 56 VBottom 2
WINDOW 3 32 56 VTop 2
SYMATTR InstName R2
SYMATTR Value 16k
SYMBOL res 576 336 R180
WINDOW 0 36 76 Left 2
WINDOW 3 36 40 Left 2
SYMATTR InstName R3
SYMATTR Value 62k
SYMBOL res 576 496 R180
WINDOW 0 36 76 Left 2
WINDOW 3 36 40 Left 2
SYMATTR InstName R4
SYMATTR Value 62k
SYMBOL Comparators\\LT1017 432 160 R0
SYMATTR InstName U1
TEXT -148 504 Left 2 !.ac oct 100 1 100k
