Version 4
SHEET 1 880 680
WIRE -96 -288 -288 -288
WIRE -96 -64 -160 -64
WIRE 128 -64 -16 -64
WIRE -160 80 -160 -64
WIRE 272 80 272 0
WIRE 272 80 -160 80
WIRE -288 160 -288 -288
WIRE -32 160 -288 160
WIRE -32 240 -32 160
WIRE 128 240 128 -64
FLAG -32 320 0
FLAG 48 320 0
FLAG 128 320 0
SYMBOL voltage -32 224 R0
SYMATTR InstName V1
SYMBOL voltage 48 224 R0
SYMATTR InstName V2
SYMBOL voltage 128 224 R0
SYMATTR InstName V3
SYMBOL csw -16 -64 R90
WINDOW 0 -32 40 VBottom 2
WINDOW 3 32 40 VTop 2
SYMATTR InstName W1
SYMBOL csw -16 -176 R90
WINDOW 0 -32 40 VBottom 2
WINDOW 3 32 40 VTop 2
SYMATTR InstName W2
SYMBOL csw -16 -288 R90
WINDOW 0 -32 40 VBottom 2
WINDOW 3 32 40 VTop 2
SYMATTR InstName W3
SYMBOL polcap 256 -64 R0
SYMATTR InstName C1
SYMATTR Value 100mk
SYMATTR SpiceLine V=15
SYMBOL polcap 144 -304 R90
WINDOW 0 0 32 VBottom 2
WINDOW 3 32 32 VTop 2
SYMATTR InstName C2
SYMATTR Value 100mk
SYMATTR SpiceLine V=16
SYMBOL polcap 0 -1056 R90
WINDOW 0 0 32 VBottom 2
WINDOW 3 32 32 VTop 2
SYMATTR InstName C3
SYMATTR Value 5mk
SYMATTR SpiceLine V=25
SYMBOL res 256 -160 R0
SYMATTR InstName R1
SYMATTR Value 820
SYMBOL res 288 -304 R90
WINDOW 0 0 56 VBottom 2
WINDOW 3 32 56 VTop 2
SYMATTR InstName R2
SYMATTR Value 56
